*Heading
** Job name: A-1-c Model name: G1- A:regular
** Generated by: Abaqus/CAE 2022
*Preprint, echo=NO, model=NO, history=NO, contact=NO
**
** PARTS
**
*Part, name=Lattice
*End Part
**  
**
** ASSEMBLY
**
*Assembly, name=Assembly
**  
*Instance, name=Lattice-1, part=Lattice
*Node
      1,           0.,          4.5
      2,  0.200000003,          4.5
      3,  0.200000003,   4.57672358
      4,  0.200000003,   4.69999981
      5,  0.200000003,   4.80298758
      6,  0.200000003,   5.62323618
      7,  0.200000003,         5.75
      8,  0.200000003,   5.85170364
      9,  0.200000003,   6.66959476
     10,  0.200000003,   6.80000019
     11,  0.200000003,   6.90076637
     12,  0.200000003,   7.71581316
     13,  0.200000003,    7.8499999
     14,  0.200000003,   7.95019341
     15,  0.200000003,   8.76190472
     16,  0.200000003,   8.89999962
     17,  0.200000003,           9.
     18,           0.,           9.
     19,   9.19999981,          10.
     20,           9.,          10.
** ... 51973 like lines cut
*Element, type=CPS4R
   1, 51992, 51986, 17093,   853
   2, 51986, 51987, 17094, 17093
   3, 51987, 51988, 17095, 17094
   4, 51988, 51989, 17096, 17095
   5, 51989, 51990, 17097, 17096
   6, 51990, 51991, 17098, 17097
   7, 51991, 51993,   568, 17098
   8,   853, 17093, 17099,   852
   9, 17093, 17094, 17100, 17099
  10, 17094, 17095, 17101, 17100
  11, 17095, 17096, 17102, 17101
  12, 17096, 17097, 17103, 17102
  13, 17097, 17098, 17104, 17103
  14, 17098,   568,   569, 17104
  15,   852, 17099, 17105,   851
  16, 17099, 17100, 17106, 17105
  17, 17100, 17101, 17107, 17106
  18, 17101, 17102, 17108, 17107
  19, 17102, 17103, 17109, 17108
  20, 17103, 17104, 17110, 17109
** ... 44075 like lines cut
*Nset, nset=_PickedSet2, internal, generate
     1,  51993,      1
*Elset, elset=_PickedSet2, internal, generate
     1,  44095,      1
** Region: (Section-1:Picked), (Controls:Default)
*Elset, elset=_I1, internal
     1,     2,     3,     4,     5,     6,     7,     8,     9,    10,    11,    12,    13,    14,    15,    16
    17,    18,    19,    20,    21,    22,    23,    24,    25,    26,    27,    28,    29,    30,    31,    32
    33,    34,    35,    36,    37,    38,    39,    40,    41,    42,    43,    44,    45,    46,    47,    48
    49,    50,    51,    52,    53,    54,    55,    56,    57,    58,    59,    60,    61,    62,    63,    64
    65,    66,    67,    68,    69,    70,    71,    72,    73,    74,    75,    76,    77,    78,    79,    80
    81,    82,    83,    84,    85,    86,    87,    88,    89,    90,    91,    92,    93,    94,    95,    96
    97,    98,    99,   100,   101,   102,   103,   104,   105,   106,   107,   108,   109,   110,   111,   112
   113,   114,   115,   116,   117,   118,   119,   120,   121,   122,   123,   124,   125,   126,   127,   128
   129,   130,   131,   132,   133,   134,   135,   136,   137,   138,   139,   140,   141,   142,   143,   144
   145,   146,   147,   148,   149,   150,   151,   152,   153,   154,   155,   156,   157,   158,   159,   160
   161,   162,   163,   164,   165,   166,   167,   168,   169,   170,   171,   172,   173,   174,   175,   176
   177,   178,   179,   180,   181,   182,   183,   184,   185,   186,   187,   188,   189,   190,   191,   192
   193,   194,   195,   196,   197,   198,   199,   200,   201,   202,   203,   204,   205,   206,   207,   208
   209,   210,   211,   212,   213,   214,   215,   216,   217,   218,   219,   220,   221,   222,   223,   224
   225,   226,   227,   228,   229,   230,   231,   232,   233,   234,   235,   236,   237,   238,   239,   240
   241,   242,   243,   244,   245,   246,   247,   248,   249,   250,   251,   252,   253,   254,   255,   256
   257,   258,   259,   260,   261,   262,   263,   264,   265,   266,   267,   268,   269,   270,   271,   272
   273,   274,   275,   276,   277,   278,   279,   280,   281,   282,   283,   284,   285,   286,   287,   288
   289,   290,   291,   292,   293,   294,   295,   296,   297,   298,   299,   300,   301,   302,   303,   304
   305,   306,   307,   308,   309,   310,   311,   312,   313,   314,   315,   316,   317,   318,   319,   320
** ... 111 like lines cut
** Section: Section-1
*Solid Section, elset=_I1, material=Material-1
,
** Region: (Section-1:Picked), (Controls:EC-1)
*Elset, elset=_I2, internal
  1037,  1038,  1039,  1040,  1041,  1042,  1043,  1044,  1045,  1046,  1047,  1048,  1049,  1050,  1051,  1052
  1053,  1054,  1055,  1056,  1057,  1058,  1059,  1060,  1061,  1062,  1063,  1064,  1065,  1066,  1067,  1068
  1069,  1070,  1071,  1072,  1073,  1074,  1075,  1076,  1077,  1078,  1079,  1080,  1081,  1082,  1083,  1084
  1085,  1086,  1087,  1088,  1089,  1090,  1091,  1092,  1093,  1094,  1095,  1096,  1097,  1098,  1099,  1100
  1101,  1102,  1103,  1104,  1105,  1106,  1107,  1108,  1109,  1110,  1111,  1112,  1113,  1114,  1115,  1116
  1117,  1118,  1119,  1120,  1121,  1122,  1123,  1124,  1125,  1126,  1127,  1128,  1129,  1130,  1131,  1132
  1133,  1134,  1135,  1136,  1137,  1138,  1139,  1140,  1141,  1142,  1143,  1144,  1145,  1146,  1147,  1148
  1149,  1150,  1151,  1152,  1153,  1154,  1155,  1156,  1157,  1158,  1159,  1160,  1161,  1162,  1163,  1164
  1165,  1166,  1167,  1168,  1169,  1170,  1171,  1172,  1173,  1174,  1175,  1176,  1177,  1178,  1179,  1180
  1181,  1182,  1183,  1184,  1185,  1186,  1187,  1188,  1189,  1190,  1191,  1192,  1193,  1194,  1195,  1196
  1197,  1198,  1199,  1200,  1201,  1202,  1203,  1204,  1205,  1206,  1207,  1208,  1209,  1210,  1211,  1212
  1213,  1214,  1215,  1216,  1217,  1218,  1219,  1220,  1221,  1222,  1223,  1224,  1225,  1226,  1227,  1228
  1229,  1230,  1231,  1232,  1233,  1234,  1235,  1236,  1237,  1238,  1239,  1240,  1241,  1242,  1243,  1244
  1245,  1246,  1247,  1248,  1249,  1250,  1251,  1252,  1253,  1254,  1255,  1256,  1257,  1258,  1259,  1260
  1261,  1262,  1263,  1264,  1265,  1266,  1267,  1268,  1269,  1270,  1271,  1272,  1273,  1274,  1275,  1276
  1277,  1278,  1279,  1280,  1281,  1282,  1283,  1284,  1285,  1286,  1287,  1288,  1289,  1290,  1291,  1292
  1293,  1294,  1295,  1296,  1297,  1298,  1299,  1300,  1301,  1302,  1303,  1304,  1305,  1306,  1307,  1308
  1309,  1310,  1311,  1312,  1313,  1314,  1315,  1316,  1317,  1318,  1319,  1320,  1321,  1322,  1323,  1324
  1325,  1326,  1327,  1328,  1329,  1330,  1331,  1332,  1333,  1334,  1335,  1336,  1337,  1338,  1339,  1340
  1341,  1342,  1343,  1344,  1345,  1346,  1347,  1348,  1349,  1350,  1351,  1352,  1353,  1354,  1355,  1356
** ... 2606 like lines cut
** Section: Section-1
*Solid Section, elset=_I2, controls=EC-1, material=Material-1
,
*End Instance
**  
*Nset, nset=BottomEdge, instance=Lattice-1
   499,   500,   503,   504,   546,   547,   548,   549,   550,   551,   552,   553,   554,   555,   556,   557
   558,   559,   560,   561, 14581, 14582, 14583, 14584, 14585, 14586, 14657, 14658, 14659, 14660, 14661, 14662
 16565, 16566, 16567, 16568, 16569, 16570, 16635, 16636, 16637, 16638, 16639, 16640, 16705, 16706, 16707, 16708
 16709, 16710, 16775, 16776, 16777, 16778, 16779, 16780, 16845, 16846, 16847, 16848, 16849, 16850, 16915, 16916
 16917, 16918, 16919, 16920, 16985, 16986, 16987, 16988, 16989, 16990, 17055, 17056, 17057, 17058, 17059, 17060
*Elset, elset=BottomEdge, instance=Lattice-1
 36801, 36802, 36803, 36804, 36805, 36806, 36807, 37032, 37033, 37034, 37035, 37036, 37037, 37038, 42472, 42473
 42474, 42475, 42476, 42477, 42478, 42703, 42704, 42705, 42706, 42707, 42708, 42709, 42934, 42935, 42936, 42937
 42938, 42939, 42940, 43165, 43166, 43167, 43168, 43169, 43170, 43171, 43396, 43397, 43398, 43399, 43400, 43401
 43402, 43627, 43628, 43629, 43630, 43631, 43632, 43633, 43858, 43859, 43860, 43861, 43862, 43863, 43864, 44089
 44090, 44091, 44092, 44093, 44094, 44095
*Nset, nset=TopEdge, instance=Lattice-1
   19,   20,   23,   24,   27,   28,   31,   32,   35,   36,   39,   40,   43,   44,   47,   48
   51,   52,   55,   56,  854,  855,  856,  857,  858,  859,  930,  931,  932,  933,  934,  935
 1006, 1007, 1008, 1009, 1010, 1011, 1082, 1083, 1084, 1085, 1086, 1087, 1158, 1159, 1160, 1161
 1162, 1163, 1234, 1235, 1236, 1237, 1238, 1239, 1310, 1311, 1312, 1313, 1314, 1315, 1386, 1387
 1388, 1389, 1390, 1391, 1462, 1463, 1464, 1465, 1466, 1467, 1538, 1539, 1540, 1541, 1542, 1543
*Elset, elset=TopEdge, instance=Lattice-1
 1037, 1038, 1039, 1040, 1041, 1042, 1043, 1268, 1269, 1270, 1271, 1272, 1273, 1274, 1499, 1500
 1501, 1502, 1503, 1504, 1505, 1730, 1731, 1732, 1733, 1734, 1735, 1736, 1961, 1962, 1963, 1964
 1965, 1966, 1967, 2192, 2193, 2194, 2195, 2196, 2197, 2198, 2423, 2424, 2425, 2426, 2427, 2428
 2429, 2654, 2655, 2656, 2657, 2658, 2659, 2660, 2885, 2886, 2887, 2888, 2889, 2890, 2891, 3116
 3117, 3118, 3119, 3120, 3121, 3122
*Nset, nset=TopNodes, instance=Lattice-1
 19, 20, 23, 24, 27, 28, 31, 32, 35, 36, 39, 40, 43, 44, 47, 48
 51, 52, 55, 56
*Nset, nset=U2, instance=Lattice-1
 56,
*End Assembly
** 
** ELEMENT CONTROLS
** 
*Section Controls, name=EC-1, ELEMENT DELETION=YES
1., 1., 1.
*Amplitude, name=Smooth, definition=SMOOTH STEP
             0.,              0.,              1.,              1.
** 
** MATERIALS
** 
*Material, name=Material-1
*Damage Initiation, criterion=DUCTILE
 0.01,0.,0.
*Damage Evolution, type=DISPLACEMENT
 0.01,
*Density
 7.8e-06,
*Elastic
200., 0.3
*Plastic
  5.,0.
 5.1,1.
** 
** BOUNDARY CONDITIONS
** 
** Name: Encastre Type: Symmetry/Antisymmetry/Encastre
*Boundary
BottomEdge, ENCASTRE
** ----------------------------------------------------------------
** 
** STEP: Step-1
** 
*Step, name=Step-1, nlgeom=YES, inc=100000000
*Dynamic,application=QUASI-STATIC,nohaf
0.01,1.,1e-12
** 
** BOUNDARY CONDITIONS
** 
** Name: Load Type: Displacement/Rotation
*Boundary, amplitude=Smooth
TopEdge, 1, 1
TopEdge, 2, 2, 0.16
TopEdge, 6, 6
** 
** OUTPUT REQUESTS
** 
*Restart, write, frequency=0
** 
** FIELD OUTPUT: Defaults
** 
*Output, field, number interval=50
*Node Output
A, RF, U, V
*Element Output, directions=YES
DMICRT, LE, PE, PEEQ, PEMAG, S, SDEG, STATUS
*Contact Output
CDISP, CSTRESS
** 
** HISTORY OUTPUT: Energy
** 
*Output, history, number interval=50
*Energy Output
ALLIE, ALLKE
** 
** HISTORY OUTPUT: RF
** 
*Node Output, nset=TopNodes
RF2, 
** 
** HISTORY OUTPUT: U2
** 
*Node Output, nset=U2
U2, 
*End Step
