*Heading
** Job name: 2x2 Model name: 2x2
** Generated by: Abaqus/CAE 2022
*Preprint, echo=NO, model=NO, history=NO, contact=NO
**
** PARTS
**
*Part, name=Part-1
*End Part
**  
**
** ASSEMBLY
**
*Assembly, name=Assembly
**  
*Instance, name=Part-1-1, part=Part-1
*Node
      1,   2.20000005,           3.
      2,           2.,           3.
      3,           2.,           2.
      4,   2.20000005,           2.
      5,   1.20000005,           3.
      6,           1.,           3.
      7,           1.,           2.
      8,   1.20000005,           2.
      9,  0.200000003,           3.
     10,           0.,           3.
     11,           0.,           2.
     12,  0.200000003,           2.
     13,   1.20000005,   1.61118519
     14,   1.20000005,          1.5
     15,           2.,   1.88881481
     16,           2.,           1.
     17,   2.20000005,           1.
     18,           2.,   1.11118519
     19,   1.20000005,   1.38881481
     20,   1.20000005,  0.611185133
** ... 5709 like lines cut
*Element, type=CPS4R
  1,    1,   51, 1628,  142
  2,   51,   52, 1629, 1628
  3,   52,   53, 1630, 1629
  4,   53,   54, 1631, 1630
  5,   54,   55, 1632, 1631
  6,   55,   56, 1633, 1632
  7,   56,   57, 1634, 1633
  8,   57,    2,   58, 1634
  9,  142, 1628, 1635,  141
 10, 1628, 1629, 1636, 1635
 11, 1629, 1630, 1637, 1636
 12, 1630, 1631, 1638, 1637
 13, 1631, 1632, 1639, 1638
 14, 1632, 1633, 1640, 1639
 15, 1633, 1634, 1641, 1640
 16, 1634,   58,   59, 1641
 17,  141, 1635, 1642,  140
 18, 1635, 1636, 1643, 1642
 19, 1636, 1637, 1644, 1643
 20, 1637, 1638, 1645, 1644
** ... 4956 like lines cut
*Nset, nset=_PickedSet2, internal, generate
    1,  5729,     1
*Elset, elset=_PickedSet2, internal, generate
    1,  4976,     1
** Section: Section-1
*Solid Section, elset=_PickedSet2, controls=EC-1, material=Material-1
,
*End Instance
**  
*Nset, nset=BottomEdge, instance=Part-1-1
   38,   39,   42,   43,   49,   50, 1123, 1124, 1125, 1126, 1127, 1128, 1129, 1215, 1216, 1217
 1218, 1219, 1220, 1221, 1582, 1583, 1584, 1585, 1586, 1587, 1588
*Elset, elset=BottomEdge, instance=Part-1-1
 3401, 3402, 3403, 3404, 3405, 3406, 3407, 3408, 3721, 3722, 3723, 3724, 3725, 3726, 3727, 3728
 4969, 4970, 4971, 4972, 4973, 4974, 4975, 4976
*Nset, nset=TopEdge, instance=Part-1-1
   1,   2,   5,   6,   9,  10,  51,  52,  53,  54,  55,  56,  57, 143, 144, 145
 146, 147, 148, 149, 235, 236, 237, 238, 239, 240, 241
*Elset, elset=TopEdge, instance=Part-1-1
   1,   2,   3,   4,   5,   6,   7,   8, 321, 322, 323, 324, 325, 326, 327, 328
 641, 642, 643, 644, 645, 646, 647, 648
*Nset, nset=TopNodes, instance=Part-1-1
  1,  2,  5,  6,  9, 10
*Nset, nset=U2, instance=Part-1-1
 10,
*End Assembly
** 
** ELEMENT CONTROLS
** 
*Section Controls, name=EC-1, ELEMENT DELETION=YES
1., 1., 1.
*Amplitude, name=Smooth, definition=SMOOTH STEP
             0.,              0.,              1.,              1.
** 
** MATERIALS
** 
*Material, name=Material-1
*Damage Initiation, criterion=DUCTILE
 0.01,0.,0.
*Damage Evolution, type=DISPLACEMENT
 0.01,
*Density
 7.8e-06,
*Elastic
200., 0.3
*Plastic
  5.,0.
 5.1,1.
** 
** BOUNDARY CONDITIONS
** 
** Name: Encastre Type: Symmetry/Antisymmetry/Encastre
*Boundary
BottomEdge, ENCASTRE
** ----------------------------------------------------------------
** 
** STEP: Step-1
** 
*Step, name=Step-1, nlgeom=YES, inc=100000000, unsymm=YES
*Dynamic,application=QUASI-STATIC,nohaf
1.,1.,1e-15
** 
** BOUNDARY CONDITIONS
** 
** Name: Load Type: Displacement/Rotation
*Boundary, amplitude=Smooth
TopEdge, 1, 1
TopEdge, 2, 2, 0.11
TopEdge, 6, 6
** 
** OUTPUT REQUESTS
** 
*Restart, write, frequency=0
** 
** FIELD OUTPUT: Defaults
** 
*Output, field, number interval=50
*Node Output
A, RF, U, V
*Element Output, directions=YES
DMICRT, LE, PE, PEEQ, PEMAG, S, SDEG, STATUS
*Contact Output
CDISP, CSTRESS
** 
** HISTORY OUTPUT: Energy
** 
*Output, history, number interval=50
*Energy Output
ALLIE, ALLKE
** 
** HISTORY OUTPUT: RF
** 
*Node Output, nset=TopNodes
RF2, 
** 
** HISTORY OUTPUT: U2
** 
*Node Output, nset=U2
U2, 
*End Step
