*Heading
** Job name: 4x4 Model name: 4x4
** Generated by: Abaqus/CAE 2022
*Preprint, echo=NO, model=NO, history=NO, contact=NO
**
** PARTS
**
*Part, name=Part-2
*End Part
**  
**
** ASSEMBLY
**
*Assembly, name=Assembly
**  
*Instance, name=Part-2-1, part=Part-2
*Node
      1,   4.19999981,           5.
      2,           4.,           5.
      3,           4.,           4.
      4,   4.19999981,           4.
      5,   3.20000005,           5.
      6,           3.,           5.
      7,           3.,           4.
      8,   3.20000005,           4.
      9,   3.20000005,   3.61118507
     10,   3.20000005,          3.5
     11,           4.,   3.88881493
     12,           4.,           3.
     13,   4.19999981,           3.
     14,           4.,   3.11118507
     15,   3.20000005,   3.38881493
     16,   3.20000005,   2.61118507
     17,   3.20000005,          2.5
     18,           4.,   2.88881493
     19,   3.20000005,   2.38881493
     20,           4.,           2.
** ... 16398 like lines cut
*Element, type=CPS4R
  1,    1,  151, 4890,  242
  2,  151,  152, 4891, 4890
  3,  152,  153, 4892, 4891
  4,  153,  154, 4893, 4892
  5,  154,  155, 4894, 4893
  6,  155,  156, 4895, 4894
  7,  156,  157, 4896, 4895
  8,  157,    2,  158, 4896
  9,  242, 4890, 4897,  241
 10, 4890, 4891, 4898, 4897
 11, 4891, 4892, 4899, 4898
 12, 4892, 4893, 4900, 4899
 13, 4893, 4894, 4901, 4900
 14, 4894, 4895, 4902, 4901
 15, 4895, 4896, 4903, 4902
 16, 4896,  158,  159, 4903
 17,  241, 4897, 4904,  240
 18, 4897, 4898, 4905, 4904
 19, 4898, 4899, 4906, 4905
 20, 4899, 4900, 4907, 4906
** ... 14164 like lines cut
*Nset, nset=_PickedSet2_#13, internal, generate
     1,  16418,      1
*Elset, elset=_PickedSet2_#13, internal, generate
     1,  14184,      1
** Section: Section-1
*Solid Section, elset=_PickedSet2_#13, material=Material-1
,
*End Instance
**  
*Nset, nset=BottomEdge, instance=Part-2-1
   60,   61,   67,   68,  138,  139,  142,  143,  149,  150, 1951, 1952, 1953, 1954, 1955, 1956
 1957, 2249, 2250, 2251, 2252, 2253, 2254, 2255, 4385, 4386, 4387, 4388, 4389, 4390, 4391, 4477
 4478, 4479, 4480, 4481, 4482, 4483, 4844, 4845, 4846, 4847, 4848, 4849, 4850
*Elset, elset=BottomEdge, instance=Part-2-1
  5185,  5186,  5187,  5188,  5189,  5190,  5191,  5192,  6113,  6114,  6115,  6116,  6117,  6118,  6119,  6120
 12609, 12610, 12611, 12612, 12613, 12614, 12615, 12616, 12929, 12930, 12931, 12932, 12933, 12934, 12935, 12936
 14177, 14178, 14179, 14180, 14181, 14182, 14183, 14184
*Nset, nset=TopEdge, instance=Part-2-1
    1,    2,    5,    6,   69,   70,   73,   74,   77,   78,  151,  152,  153,  154,  155,  156
  157,  243,  244,  245,  246,  247,  248,  249, 2295, 2296, 2297, 2298, 2299, 2300, 2301, 2387
 2388, 2389, 2390, 2391, 2392, 2393, 2479, 2480, 2481, 2482, 2483, 2484, 2485
*Elset, elset=TopEdge, instance=Part-2-1
    1,    2,    3,    4,    5,    6,    7,    8,  321,  322,  323,  324,  325,  326,  327,  328
 6121, 6122, 6123, 6124, 6125, 6126, 6127, 6128, 6441, 6442, 6443, 6444, 6445, 6446, 6447, 6448
 6761, 6762, 6763, 6764, 6765, 6766, 6767, 6768
*Nset, nset=TopNodes, instance=Part-2-1
  1,  2,  5,  6, 69, 70, 73, 74, 77, 78
*Nset, nset=U2, instance=Part-2-1
 78,
*End Assembly
*Amplitude, name=Smooth, definition=SMOOTH STEP
             0.,              0.,              1.,              1.
** 
** MATERIALS
** 
*Material, name=Material-1
*Damage Initiation, criterion=DUCTILE
 0.01,0.,0.
*Damage Evolution, type=DISPLACEMENT
 0.01,
*Density
 7.8e-06,
*Elastic
200., 0.3
*Plastic
  5.,0.
 5.1,1.
** 
** BOUNDARY CONDITIONS
** 
** Name: Encastre Type: Symmetry/Antisymmetry/Encastre
*Boundary
BottomEdge, ENCASTRE
** ----------------------------------------------------------------
** 
** STEP: Step-1
** 
*Step, name=Step-1, nlgeom=YES, inc=100000000, unsymm=YES
*Dynamic,application=QUASI-STATIC,nohaf
1.,1.,1e-15
** 
** BOUNDARY CONDITIONS
** 
** Name: Load Type: Displacement/Rotation
*Boundary, amplitude=Smooth
TopEdge, 1, 1
TopEdge, 2, 2, 0.15
TopEdge, 6, 6
** 
** OUTPUT REQUESTS
** 
*Restart, write, frequency=0
** 
** FIELD OUTPUT: Defaults
** 
*Output, field, number interval=50
*Node Output
A, RF, U, V
*Element Output, directions=YES
DMICRT, LE, PE, PEEQ, PEMAG, S, SDEG, STATUS
*Contact Output
CDISP, CSTRESS
** 
** HISTORY OUTPUT: Energy
** 
*Output, history, number interval=50
*Energy Output
ALLIE, ALLKE
** 
** HISTORY OUTPUT: RF
** 
*Node Output, nset=TopNodes
RF2, 
** 
** HISTORY OUTPUT: U2
** 
*Node Output, nset=U2
U2, 
*End Step
