*Heading
** Job name: 8x8 Model name: 8x8
** Generated by: Abaqus/CAE 2022
*Preprint, echo=NO, model=NO, history=NO, contact=NO
**
** PARTS
**
*Part, name=Part-3
*End Part
**  
**
** ASSEMBLY
**
*Assembly, name=Assembly
**  
*Instance, name=Part-3-1, part=Part-3
*Node
      1,   8.19999981,           9.
      2,           8.,           9.
      3,           8.,           8.
      4,   8.19999981,           8.
      5,   7.19999981,           9.
      6,           7.,           9.
      7,           7.,           8.
      8,   7.19999981,           8.
      9,   7.19999981,   7.61118507
     10,   7.19999981,          7.5
     11,           8.,   7.88881493
     12,           8.,           7.
     13,   8.19999981,           7.
     14,           8.,   7.11118507
     15,   7.19999981,   7.38881493
     16,   7.19999981,   6.61118507
     17,   7.19999981,          6.5
     18,           8.,   6.88881493
     19,   7.19999981,   6.38881493
     20,           8.,           6.
** ... 54816 like lines cut
*Element, type=CPS4R
  1,     1,   519, 16862,   610
  2,   519,   520, 16863, 16862
  3,   520,   521, 16864, 16863
  4,   521,   522, 16865, 16864
  5,   522,   523, 16866, 16865
  6,   523,   524, 16867, 16866
  7,   524,   525, 16868, 16867
  8,   525,     2,   526, 16868
  9,   610, 16862, 16869,   609
 10, 16862, 16863, 16870, 16869
 11, 16863, 16864, 16871, 16870
 12, 16864, 16865, 16872, 16871
 13, 16865, 16866, 16873, 16872
 14, 16866, 16867, 16874, 16873
 15, 16867, 16868, 16875, 16874
 16, 16868,   526,   527, 16875
 17,   609, 16869, 16876,   608
 18, 16869, 16870, 16877, 16876
 19, 16870, 16871, 16878, 16877
 20, 16871, 16872, 16879, 16878
** ... 47172 like lines cut
*Nset, nset=_PickedSet2_#14, internal, generate
     1,  54836,      1
*Elset, elset=_PickedSet2_#14, internal, generate
     1,  47192,      1
** Section: Section-1
*Solid Section, elset=_PickedSet2_#14, controls=EC-1, material=Material-1
,
*End Instance
**  
*Nset, nset=BottomEdge, instance=Part-3-1
   178,   179,   185,   186,   240,   241,   247,   248,   436,   437,   443,   444,   506,   507,   510,   511
   517,   518,  5919,  5920,  5921,  5922,  5923,  5924,  5925,  6217,  6218,  6219,  6220,  6221,  6222,  6223
  7985,  7986,  7987,  7988,  7989,  7990,  7991,  8283,  8284,  8285,  8286,  8287,  8288,  8289, 13987, 13988
 13989, 13990, 13991, 13992, 13993, 14285, 14286, 14287, 14288, 14289, 14290, 14291, 16357, 16358, 16359, 16360
 16361, 16362, 16363, 16449, 16450, 16451, 16452, 16453, 16454, 16455, 16816, 16817, 16818, 16819, 16820, 16821
 16822,
*Elset, elset=BottomEdge, instance=Part-3-1
 14897, 14898, 14899, 14900, 14901, 14902, 14903, 14904, 15825, 15826, 15827, 15828, 15829, 15830, 15831, 15832
 21041, 21042, 21043, 21044, 21045, 21046, 21047, 21048, 21969, 21970, 21971, 21972, 21973, 21974, 21975, 21976
 38193, 38194, 38195, 38196, 38197, 38198, 38199, 38200, 39121, 39122, 39123, 39124, 39125, 39126, 39127, 39128
 45617, 45618, 45619, 45620, 45621, 45622, 45623, 45624, 45937, 45938, 45939, 45940, 45941, 45942, 45943, 45944
 47185, 47186, 47187, 47188, 47189, 47190, 47191, 47192
*Nset, nset=TopEdge, instance=Part-3-1
     1,     2,     5,     6,    63,    64,    67,    68,   249,   250,   253,   254,   311,   312,   315,   316
   319,   320,   519,   520,   521,   522,   523,   524,   525,   611,   612,   613,   614,   615,   616,   617
  2350,  2351,  2352,  2353,  2354,  2355,  2356,  2442,  2443,  2444,  2445,  2446,  2447,  2448,  8329,  8330
  8331,  8332,  8333,  8334,  8335,  8421,  8422,  8423,  8424,  8425,  8426,  8427, 10137, 10138, 10139, 10140
 10141, 10142, 10143, 10229, 10230, 10231, 10232, 10233, 10234, 10235, 10321, 10322, 10323, 10324, 10325, 10326
 10327,
*Elset, elset=TopEdge, instance=Part-3-1
     1,     2,     3,     4,     5,     6,     7,     8,   321,   322,   323,   324,   325,   326,   327,   328
  4849,  4850,  4851,  4852,  4853,  4854,  4855,  4856,  5169,  5170,  5171,  5172,  5173,  5174,  5175,  5176
 21977, 21978, 21979, 21980, 21981, 21982, 21983, 21984, 22297, 22298, 22299, 22300, 22301, 22302, 22303, 22304
 26841, 26842, 26843, 26844, 26845, 26846, 26847, 26848, 27161, 27162, 27163, 27164, 27165, 27166, 27167, 27168
 27481, 27482, 27483, 27484, 27485, 27486, 27487, 27488
*Nset, nset=TopNodes, instance=Part-3-1
   1,   2,   5,   6,  63,  64,  67,  68, 249, 250, 253, 254, 311, 312, 315, 316
 319, 320
*Nset, nset=U2, instance=Part-3-1
 320,
*End Assembly
** 
** ELEMENT CONTROLS
** 
*Section Controls, name=EC-1, ELEMENT DELETION=YES
1., 1., 1.
*Amplitude, name=Smooth, definition=SMOOTH STEP
             0.,              0.,              1.,              1.
** 
** MATERIALS
** 
*Material, name=Material-1
*Damage Initiation, criterion=DUCTILE
 0.01,0.,0.
*Damage Evolution, type=DISPLACEMENT
 0.01,
*Density
 7.8e-06,
*Elastic
200., 0.3
*Plastic
  5.,0.
 5.1,1.
** 
** BOUNDARY CONDITIONS
** 
** Name: Encastre Type: Symmetry/Antisymmetry/Encastre
*Boundary
BottomEdge, ENCASTRE
** ----------------------------------------------------------------
** 
** STEP: Step-1
** 
*Step, name=Step-1, nlgeom=YES, inc=100000000, unsymm=YES
*Dynamic,application=QUASI-STATIC,nohaf
1.,1.,1e-15
** 
** BOUNDARY CONDITIONS
** 
** Name: Load Type: Displacement/Rotation
*Boundary, amplitude=Smooth
TopEdge, 1, 1
TopEdge, 2, 2, 0.235
TopEdge, 6, 6
** 
** OUTPUT REQUESTS
** 
*Restart, write, frequency=0
** 
** FIELD OUTPUT: Defaults
** 
*Output, field, number interval=50
*Node Output
A, RF, U, V
*Element Output, directions=YES
DMICRT, LE, PE, PEEQ, PEMAG, S, SDEG, STATUS
*Contact Output
CDISP, CSTRESS
** 
** HISTORY OUTPUT: Energy
** 
*Output, history, number interval=50
*Energy Output
ALLIE, ALLKE
** 
** HISTORY OUTPUT: RF
** 
*Node Output, nset=TopNodes
RF2, 
** 
** HISTORY OUTPUT: U2
** 
*Node Output, nset=U2
U2, 
*End Step
